55

Au 0 0 0
Au -2.984 0 0
Au -5.968 0 0
Au 2.984 0 0
Au 5.968 0 0
Au -1.429 2.584 0
Au -4.476 2.584 0
Au 1.429 2.584 0
Au 4.476 2.584 0
Au -1.429 -2.584 0
Au -4.476 -2.584 0
Au 1.429 -2.584 0
Au 4.476 -2.584 0
Au -2.984 5.168 0
Au 0 5.168 0
Au 2.984 5.168 0
Au -2.984 -5.168 0
Au 0 -5.168 0
Au 2.984 -5.168 0
Au -1.492 4.307 2.436
Au 1.492 4.307 2.436
Au -2.984 1.723 2.436
Au 0 1.723 2.436
Au 2.984 1.723 2.436
Au -4.476 -0.862 2.436
Au -1.492 -0.862 2.436
Au 1.492 -0.862 2.436
Au 4.476 -0.862 2.436
Au -2.984 -3.446 2.436
Au 0 -3.446 2.436
Au 2.984 -3.446 2.436
Au 0 3.446 4.872 
Au -1.492 0.862 4.872 
Au 1.492 0.862 4.872 
Au -2.984 -1.723 4.872 
Au 0 -1.723 4.872 
Au 2.984 -1.723 4.872 
Au 1.492 -4.307 -2.436
Au -1.492 -4.307 -2.436
Au 2.984 -1.723 -2.436
Au 0 -1.723 -2.436
Au -2.984 -1.723 -2.436
Au 4.476 0.862 -2.436
Au 1.492 0.862 -2.436
Au -1.492 0.862 -2.436
Au -4.476 0.862 -2.436
Au 2.984 3.446 -2.436
Au 0 3.446 -2.436
Au -2.984 3.446 -2.436
Au 0 -3.446 -4.872 
Au 1.492 -0.862 -4.872 
Au -1.492 -0.862 -4.872 
Au 2.984 1.723 -4.872
Au 0 1.723 -4.872 
Au -2.984 1.723 -4.872 
