6

Na     -0.005656852113573     -0.009141105365509      0.000000000000000
Na      2.161214131892207      2.794086550115908      1.740634406465105
O       0.521583455087382      2.355416660497631     -0.000000000000000
O      -0.506813139423620      3.231326151362120      0.000000000000000
O       1.633952935614323      5.158614635891004      1.740634406465105
O       2.662348656820273      6.034500642267626      1.740634406465105
